Version 4
SHEET 1 1620 680
WIRE 544 -368 464 -368
WIRE 656 -368 624 -368
WIRE 832 -368 656 -368
WIRE 656 -320 656 -368
WIRE 832 -320 832 -368
WIRE 960 -320 832 -320
WIRE 464 -304 464 -368
WIRE 832 -304 832 -320
WIRE 960 -304 960 -320
WIRE 832 -208 832 -224
WIRE 960 -208 960 -240
WIRE 464 -192 464 -240
WIRE 656 -192 656 -240
WIRE 656 -192 464 -192
WIRE -976 -16 -976 -32
WIRE -848 -16 -848 -32
WIRE -336 0 -480 0
WIRE 560 0 480 0
WIRE 672 0 624 0
WIRE 752 0 672 0
WIRE 864 0 800 0
WIRE 1136 0 928 0
WIRE 1216 0 1136 0
WIRE 1488 0 1264 0
WIRE 1520 0 1488 0
WIRE -112 16 -272 16
WIRE 432 16 144 16
WIRE -336 32 -384 32
WIRE 480 32 480 0
WIRE 800 32 800 0
WIRE 1264 32 1264 0
WIRE 432 48 432 16
WIRE 672 48 672 0
WIRE 752 48 752 0
WIRE 1136 48 1136 0
WIRE 1216 48 1216 0
WIRE -976 80 -976 64
WIRE -848 80 -848 64
WIRE 432 192 432 96
WIRE 480 192 480 112
WIRE 480 192 432 192
WIRE 672 192 672 128
WIRE 672 192 480 192
WIRE 688 192 672 192
WIRE 752 192 752 96
WIRE 752 192 688 192
WIRE 800 192 800 112
WIRE 800 192 752 192
WIRE 1136 192 1136 128
WIRE 1152 192 1136 192
WIRE 1216 192 1216 96
WIRE 1216 192 1152 192
WIRE 1264 192 1264 112
WIRE 1264 192 1216 192
WIRE 688 208 688 192
WIRE 1152 208 1152 192
WIRE -384 240 -384 32
WIRE 1488 240 1488 0
WIRE 1488 240 -384 240
WIRE -384 352 -384 320
FLAG 832 -208 0
FLAG 960 -208 0
FLAG -304 -16 -V
FLAG -304 48 +V
FLAG -384 352 0
FLAG -112 16 Loop1
IOPIN -112 16 BiDir
FLAG 144 16 Loop2
IOPIN 144 16 BiDir
FLAG -480 0 In
IOPIN -480 0 In
FLAG 1520 0 Out
IOPIN 1520 0 Out
FLAG -848 80 0
FLAG -848 -32 +V
FLAG -976 80 0
FLAG -976 -32 -V
FLAG 688 208 0
FLAG 1152 208 0
SYMBOL res 816 -320 R0
SYMATTR InstName R1
SYMATTR Value 100000
SYMBOL cap 944 -304 R0
SYMATTR InstName C1
SYMATTR Value {CL}
SYMBOL res 640 -384 R90
WINDOW 0 0 56 VBottom 2
WINDOW 3 32 56 VTop 2
SYMATTR InstName R2
SYMATTR Value {RS*small}
SYMBOL Opamps\\LTC2052 -304 16 M180
SYMATTR InstName U1
SYMBOL cap 448 -304 R0
SYMATTR InstName C2
SYMATTR Value {CF*small}
SYMBOL res 640 -336 R0
SYMATTR InstName R3
SYMATTR Value {RF*small}
SYMBOL voltage -848 -32 R0
SYMATTR InstName V1
SYMATTR Value 5
SYMBOL voltage -976 -32 R0
SYMATTR InstName V2
SYMATTR Value -5
SYMBOL res 688 144 R180
WINDOW 0 36 76 Left 2
WINDOW 3 36 40 Left 2
SYMATTR InstName R4
SYMATTR Value 1
SYMBOL cap 624 -16 R90
WINDOW 0 0 32 VBottom 2
WINDOW 3 32 32 VTop 2
SYMATTR InstName C3
SYMATTR Value {1n}
SYMBOL e 480 16 R0
SYMATTR InstName E1
SYMATTR Value 1
SYMBOL e 800 16 R0
SYMATTR InstName E2
SYMATTR Value 1
SYMBOL res 1152 144 R180
WINDOW 0 36 76 Left 2
WINDOW 3 36 40 Left 2
SYMATTR InstName R5
SYMATTR Value 1
SYMBOL cap 928 -16 R90
WINDOW 0 0 32 VBottom 2
WINDOW 3 33 -13 VTop 2
SYMATTR InstName C4
SYMATTR Value {1n}
SYMBOL e 1264 16 R0
SYMATTR InstName E3
SYMATTR Value 1
TEXT 56 -232 Left 2 !.param comp_on=1\n.param comp_off=1-comp_on\n.param large=comp_off*1e10+1\n.param small=comp_on+1e-10
TEXT -840 -240 Left 2 ;.param RS 50\n.param CF=0.22uF\n.param RF 1000\n.param CL 1.0uF
